13Bus/ieee123_VLN.Txt

SYMMETRICAL COMPONENT VOLTAGES BY BUS (for 3-phase buses)

Bus       Mag:   V1 (kV)    p.u.     V2 (kV)   %V2/V1    V0 (kV)    %V0/V1

150          2.402          1  1.115E-009  4.641E-008 2.343E-010 9.754E-009
150r         2.402          1  1.095E-009  4.56E-008 2.614E-010 1.089E-008
149          2.402          1  1.096E-009  4.562E-008 2.613E-010 1.088E-008
1            2.402          1  1.359E-007  5.657E-006 1.322E-007 5.503E-006
2            2.402          1          0          0         0         0
3            2.402          1          0          0         0         0
7            2.402          1  2.332E-007  9.709E-006 2.388E-007 9.942E-006
4            2.402          1          0          0         0         0
5            2.402          1          0          0         0         0
6            2.402          1          0          0         0         0
8            2.402          1  2.977E-007  1.239E-005 3.105E-007 1.293E-005
12           2.402          1          0          0         0         0
9            2.402          1          0          0         0         0
13           2.402          1  3.89E-007  1.619E-005 3.948E-007 1.644E-005
9r           2.402          1          0          0         0         0
14           2.402          1          0          0         0         0
34           2.402          1          0          0         0         0
18           2.402          1  3.696E-007  1.539E-005 4.873E-007 2.029E-005
11           2.402          1          0          0         0         0
10           2.402          1          0          0         0         0
15           2.402          1          0          0         0         0
16           2.402          1          0          0         0         0
17           2.402          1          0          0         0         0
19           2.402          1          0          0         0         0
21           2.402          1  3.732E-007  1.554E-005 5.008E-007 2.085E-005
20           2.402          1          0          0         0         0
22           2.402          1          0          0         0         0
23           2.402          1  3.791E-007  1.579E-005 5.185E-007 2.159E-005
24           2.402          1          0          0         0         0
25           2.402          1  3.849E-007  1.602E-005 5.389E-007 2.244E-005
25r          2.402          1          0          0         0         0
26           2.402          1          0          0         0         0
28           2.402          1  3.839E-007  1.598E-005 5.395E-007 2.246E-005
27           2.402          1          0          0         0         0
31           2.402          1          0          0         0         0
33           2.402          1          0          0         0         0
29           2.402          1  3.828E-007  1.594E-005  5.4E-007 2.248E-005
30           2.402          1  3.821E-007  1.591E-005 5.404E-007 2.25E-005
250          2.402          1  3.819E-007  1.59E-005 5.405E-007 2.25E-005
32           2.402          1          0          0         0         0
35           2.402          1  3.703E-007  1.542E-005 4.841E-007 2.016E-005
36           2.402          1          0          0         0         0
40           2.402          1  3.789E-007  1.578E-005 4.917E-007 2.047E-005
37           2.402          1          0          0         0         0
38           2.402          1          0          0         0         0
39           2.402          1          0          0         0         0
41           2.402          1          0          0         0         0
42           2.402          1  3.856E-007  1.605E-005 5.003E-007 2.083E-005
43           2.402          1          0          0         0         0
44           2.402          1  3.92E-007  1.632E-005 5.113E-007 2.129E-005
45           2.402          1          0          0         0         0
47           2.402          1  3.964E-007  1.65E-005 5.121E-007 2.132E-005
46           2.402          1          0          0         0         0
48           2.402          1  3.965E-007  1.651E-005 5.12E-007 2.132E-005
49           2.402          1  3.98E-007  1.657E-005 5.106E-007 2.126E-005
50           2.402          1  3.992E-007  1.662E-005 5.094E-007 2.121E-005
51           2.402          1  4.001E-007  1.666E-005 5.085E-007 2.117E-005
151          2.402          1  4.011E-007  1.67E-005 5.075E-007 2.113E-005
52           2.402          1  4.62E-007  1.923E-005 4.687E-007 1.952E-005
53           2.402          1  4.979E-007  2.073E-005 5.058E-007 2.106E-005
54           2.402          1  5.201E-007  2.165E-005 5.29E-007 2.202E-005
55           2.402          1  5.212E-007  2.17E-005 5.292E-007 2.203E-005
57           2.402          1  5.22E-007  2.173E-005 5.593E-007 2.329E-005
56           2.402          1  5.216E-007  2.172E-005 5.292E-007 2.203E-005
58           2.402          1          0          0         0         0
60           2.402          1  5.537E-007  2.305E-005 6.582E-007 2.74E-005
59           2.402          1          0          0         0         0
61           2.402          1  5.542E-007  2.307E-005 6.587E-007 2.743E-005
62           2.402          1  5.56E-007  2.315E-005 6.575E-007 2.737E-005
63           2.402          1  5.573E-007  2.32E-005 6.571E-007 2.736E-005
64           2.402          1  5.591E-007  2.328E-005 6.566E-007 2.734E-005
65           2.402          1  5.605E-007  2.334E-005 6.562E-007 2.732E-005
66           2.402          1  5.608E-007  2.335E-005 6.561E-007 2.732E-005
67           2.402          1  5.429E-007  2.26E-005  7.3E-007 3.04E-005
68           2.402          1          0          0         0         0
72           2.402          1  5.446E-007  2.267E-005 7.245E-007 3.016E-005
97           2.402          1  5.495E-007  2.288E-005 7.495E-007 3.121E-005
69           2.402          1          0          0         0         0
70           2.402          1          0          0         0         0
71           2.402          1          0          0         0         0
73           2.402          1          0          0         0         0
76           2.402          1  5.446E-007  2.267E-005 7.212E-007 3.003E-005
74           2.402          1          0          0         0         0
75           2.402          1          0          0         0         0
77           2.402          1  5.383E-007  2.241E-005 7.238E-007 3.013E-005
86           2.402          1  5.43E-007  2.261E-005 7.16E-007 2.981E-005
78           2.402          1  5.37E-007  2.236E-005 7.244E-007 3.016E-005
79           2.402          1  5.367E-007  2.234E-005 7.245E-007 3.017E-005
80           2.402          1  5.334E-007  2.221E-005 7.275E-007 3.029E-005
81           2.402          1  5.325E-007  2.217E-005 7.287E-007 3.034E-005
82           2.402          1  5.315E-007  2.213E-005 7.29E-007 3.035E-005
84           2.402          1          0          0         0         0
83           2.402          1  5.312E-007  2.212E-005 7.292E-007 3.036E-005
85           2.402          1          0          0         0         0
87           2.402          1  5.352E-007  2.229E-005 7.185E-007 2.991E-005
88           2.402          1          0          0         0         0
89           2.402          1  5.297E-007  2.205E-005 7.133E-007 2.97E-005
90           2.402          1          0          0         0         0
91           2.402          1  5.276E-007  2.197E-005 7.139E-007 2.972E-005
92           2.402          1          0          0         0         0
93           2.402          1  5.261E-007  2.191E-005 7.146E-007 2.975E-005
94           2.402          1          0          0         0         0
95           2.402          1  5.232E-007  2.178E-005 7.081E-007 2.948E-005
96           2.402          1          0          0         0         0
98           2.402          1  5.494E-007  2.287E-005 7.485E-007 3.116E-005
99           2.402          1  5.493E-007  2.287E-005 7.47E-007 3.11E-005
100          2.402          1  5.492E-007  2.287E-005 7.465E-007 3.108E-005
450          2.402          1  5.492E-007  2.287E-005 7.461E-007 3.107E-005
197          2.402          1  5.495E-007  2.288E-005 7.495E-007 3.121E-005
101          2.402          1  5.564E-007  2.317E-005 7.705E-007 3.208E-005
102          2.402          1          0          0         0         0
105          2.402          1  5.628E-007  2.343E-005 7.958E-007 3.314E-005
103          2.402          1          0          0         0         0
104          2.402          1          0          0         0         0
106          2.402          1          0          0         0         0
108          2.402          1  5.761E-007  2.399E-005 8.411E-007 3.502E-005
107          2.402          1          0          0         0         0
109          2.402          1          0          0         0         0
300          2.402          1  5.762E-007  2.399E-005 8.406E-007  3.5E-005
110          2.402          1          0          0         0         0
111          2.402          1          0          0         0         0
112          2.402          1          0          0         0         0
113          2.402          1          0          0         0         0
114          2.402          1          0          0         0         0
135          2.402          1  3.696E-007  1.539E-005 4.873E-007 2.029E-005
152          2.402          1  3.89E-007  1.619E-005 3.948E-007 1.644E-005
160r         2.402          1  5.538E-007  2.306E-005 6.583E-007 2.741E-005
160          2.402          1  5.537E-007  2.305E-005 6.582E-007 2.74E-005
61s          2.402          1  5.542E-007  2.307E-005 6.587E-007 2.743E-005
300_open     2.402          1  4.011E-007  1.67E-005 5.075E-007 2.113E-005
94_open      2.402          1          0          0         0         0
610         0.2771          1  6.395E-008  2.307E-005 9.763E-010 3.523E-007
